  1023.  278.65  4.2
   0.00  278.65  4.20   0.00    0.00
  50.00  276.91  3.70  -2.92   -0.38
 100.00  277.68  3.50  -2.90   -0.62
 150.00  279.83  3.80  -2.79   -0.57
 200.00  280.81  3.80  -2.79   -0.51
 250.00  281.40  3.80  -3.12   -0.51
 300.00  281.68  3.70  -3.39   -0.53
 350.00  281.97  3.60  -3.20   -0.47
 400.00  282.07  3.50  -2.87   -0.44
 450.00  282.06  3.40  -2.49   -0.37
 500.00  281.97  3.30  -2.66   -0.30
 550.00  281.97  3.20  -2.79   -0.26
 600.00  281.87  3.20  -2.68   -0.24
 650.00  281.87  3.10  -2.43   -0.35
 700.00  281.98  2.90  -2.42   -0.44
 750.00  282.29  2.70  -2.45   -0.48
 800.00  282.63  2.50  -2.41   -0.62
 850.00  282.84  2.30  -2.28   -0.76
 900.00  283.06  2.20  -2.29   -0.91
 950.00  283.20  2.10  -2.55   -1.16
1000.00  283.63  2.00  -2.29   -1.41
1050.00  284.18  1.90  -2.11   -1.15
1100.00  284.73  1.80  -1.93   -0.90
1150.00  285.08  1.65  -2.01   -0.59
1200.00  285.43  1.50  -2.10   -0.28
1250.00  285.68  1.35  -1.77   -0.10
1300.00  285.93  1.20  -1.45    0.07
1350.00  286.56  1.00  -1.33    0.08
1400.00  287.18  0.80  -1.20    0.09
1450.00  287.77  0.90  -1.20    0.17
1500.00  288.35  1.00  -1.19    0.26
1550.00  288.63  0.90  -1.34    0.70
1600.00  288.90  0.80  -1.49    1.15
1650.00  289.24  0.75  -1.10    1.43
1700.00  289.58  0.70  -0.70    1.72
1750.00  290.08  0.70  -0.32    1.60
1800.00  290.58  0.70   0.05    1.47
1850.00  290.77  0.70   0.28    1.29
1900.00  290.96  0.70   0.50    1.10
1950.00  291.00  0.65   0.25    0.55
2000.00  291.04  0.60   0.00    0.00
3750.00  298.05  0.31   7.00    0.00
3875.00  307.01  0.26  15.00    0.00
5875.00  318.44  0.23  25.00    0.00
